project/tests/fixtures/controls/legacy_regression/psse_validation_suite/suite_u_ultc_3w_tab_cw2.raw
@!IC, SBASE,REV,XFRRAT,NXFRAT,BASFRQ
0, 100.00, 34, 0, 1, 50.00 / PSS(R)E-34.9
SUITE_U_ULTC_3W_TAB_CW2
THREE-WINDING CW=2 TAP WITH IMPEDANCE-CORRECTION TABLE METADATA
GENERAL, THRSHZ=0.0001
NEWTON, ITMXN=40, VCTOLV=0.00001
ADJUST, MXTPSS=20
SOLVER, FNSL, ACTAPS=1, SWSHNT=0, FLATST=1
0 / END OF SYSTEM-WIDE DATA, BEGIN BUS DATA
1,'SOURCE      ', 230.0000,3,   1,   1,   1,1.00000,   0.0000,1.10000,0.90000,1.10000,0.90000
2,'LOAD        ', 115.0000,1,   1,   1,   1,1.00000,   0.0000,1.10000,0.90000,1.10000,0.90000
3,'TERTIARY    ',  13.8000,1,   1,   1,   1,1.00000,   0.0000,1.10000,0.90000,1.10000,0.90000
0 / END OF BUS DATA, BEGIN LOAD DATA
2,'1 ',1,1,1, 100.000, 50.000, 0.000, 0.000, 0.000, 0.000,1,1,0,0,0,0
3,'1 ',1,1,1,  10.000,  3.000, 0.000, 0.000, 0.000, 0.000,1,1,0,0,0,0
0 / END OF LOAD DATA, BEGIN FIXED SHUNT DATA
0 / END OF FIXED SHUNT DATA, BEGIN GENERATOR DATA
1,'1 ',   110.000,     0.000,   300.000,  -300.000,1.00000,     1,   100.000,0,0,0,0,1.00000,1,100.0,200.000,0.000,1,1.0000
0 / END OF GENERATOR DATA, BEGIN BRANCH DATA
0 / END OF BRANCH DATA, BEGIN SYSTEM SWITCHING DEVICE DATA
0 / END OF SYSTEM SWITCHING DEVICE DATA, BEGIN TRANSFORMER DATA
1,2,3,'1 ',2,1,1, 0.00000, 0.00000,1,'3W TAB CW2                              ',1,1,1.0000,0,1.0000,0,1.0000,0,1.0000,'            ',0
0.02500, 0.22000, 100.00, 0.03500, 0.26000, 100.00, 0.03000, 0.24000, 100.00,1.00000, 0.0000
230.0000, 0.000, 0.000, 250.00,250.00,250.00,0,0,0,0,0,0,0,0,0, 1, -2, 253.000,207.000,1.03000,0.95000,5,1,0.00000,0.00000,0.000,0
115.0000, 0.000, 0.000, 250.00,250.00,250.00,0,0,0,0,0,0,0,0,0, 0,  0, 126.500,103.500,1.10000,0.90000,33,1,0.00000,0.00000,0.000,0
 13.8000, 0.000, 0.000, 100.00,100.00,100.00,0,0,0,0,0,0,0,0,0, 0,  0,  15.180, 12.420,1.10000,0.90000,33,1,0.00000,0.00000,0.000,0
0 / END OF TRANSFORMER DATA, BEGIN AREA DATA
0 / END OF AREA DATA, BEGIN TWO-TERMINAL DC DATA
0 / END OF TWO-TERMINAL DC DATA, BEGIN VSC DC LINE DATA
0 / END OF VSC DC LINE DATA, BEGIN IMPEDANCE CORRECTION DATA
1, 0.90000, 0.90000, 0.00000, 1.10000, 1.10000, 0.00000, 0.00000, 0.00000, 0.00000
0 / END OF IMPEDANCE CORRECTION DATA, BEGIN MULTI-TERMINAL DC DATA
0 / END OF MULTI-TERMINAL DC DATA, BEGIN MULTI-SECTION LINE DATA
0 / END OF MULTI-SECTION LINE DATA, BEGIN ZONE DATA
0 / END OF ZONE DATA, BEGIN INTER-AREA TRANSFER DATA
0 / END OF INTER-AREA TRANSFER DATA, BEGIN OWNER DATA
0 / END OF OWNER DATA, BEGIN FACTS DEVICE DATA
0 / END OF FACTS DEVICE DATA, BEGIN SWITCHED SHUNT DATA
0 / END OF SWITCHED SHUNT DATA, BEGIN GNE DATA
0 / END OF GNE DATA, BEGIN INDUCTION MACHINE DATA
0 / END OF INDUCTION MACHINE DATA, BEGIN SUBSTATION DATA
0 / END OF SUBSTATION DATA

